reduced_networks/ieee34/62pct/dss/Loads.dss
! Original load models relocated and rebased in per unit
new Load.s860 Bus1="852r" Phases=3 Conn="wye" Model=1 kV=24.9 kW=60 kvar=48 VMinpu=0.85
new Load.s840 Bus1="852r" Phases=3 Conn="wye" Model=5 kV=24.9 kW=27 kvar=21 VMinpu=0.85
new Load.s844 Bus1="852r" Phases=3 Conn="wye" Model=2 kV=24.9 kW=405 kvar=315 VMinpu=0.85
new Load.s848 Bus1="852r" Phases=3 Conn="delta" Model=1 kV=24.9 kW=60 kvar=48 VMinpu=0.85
new Load.s830a Bus1="830.1.2" Phases=1 Conn="delta" Model=2 kV=24.9 kW=10 kvar=5 VMinpu=0.85
new Load.s830b Bus1="830.2.3" Phases=1 Conn="delta" Model=2 kV=24.9 kW=10 kvar=5 VMinpu=0.85
new Load.s830c Bus1="830.3.1" Phases=1 Conn="delta" Model=2 kV=24.9 kW=25 kvar=10 VMinpu=0.85
new Load.s890 Bus1="890" Phases=3 Conn="delta" Model=5 kV=4.16 kW=450 kvar=225 VMinpu=0.85
new Load.d802_806sb Bus1="800.2" Phases=1 Conn="wye" Model=1 kV=14.376 kW=15 kvar=7.5 VMinpu=0.85
new Load.d802_806rb Bus1="800.2" Phases=1 Conn="wye" Model=1 kV=14.376 kW=15 kvar=7.5 VMinpu=0.85
new Load.d802_806sc Bus1="800.3" Phases=1 Conn="wye" Model=1 kV=14.376 kW=12.5 kvar=7 VMinpu=0.85
new Load.d802_806rc Bus1="800.3" Phases=1 Conn="wye" Model=1 kV=14.376 kW=12.5 kvar=7 VMinpu=0.85
new Load.d808_810sb Bus1="808.2" Phases=1 Conn="wye" Model=4 kV=14.376 kW=8 kvar=4 VMinpu=0.85
new Load.d808_810rb Bus1="808.2" Phases=1 Conn="wye" Model=4 kV=14.376 kW=8 kvar=4 VMinpu=0.85
new Load.d818_820sa Bus1="816.1" Phases=1 Conn="wye" Model=2 kV=14.376 kW=17 kvar=8.5 VMinpu=0.85
new Load.d818_820ra Bus1="820.1" Phases=1 Conn="wye" Model=2 kV=14.376 kW=17 kvar=8.5 VMinpu=0.85
new Load.d820_822sa Bus1="820.1" Phases=1 Conn="wye" Model=1 kV=14.376 kW=67.5 kvar=35 VMinpu=0.85
new Load.d820_822ra Bus1="820.1" Phases=1 Conn="wye" Model=1 kV=14.376 kW=67.5 kvar=35 VMinpu=0.85
new Load.d816_824sb Bus1="816.2.3" Phases=1 Conn="delta" Model=5 kV=24.9 kW=2.5 kvar=1 VMinpu=0.85
new Load.d816_824rb Bus1="824.2.3" Phases=1 Conn="delta" Model=5 kV=24.9 kW=2.5 kvar=1 VMinpu=0.85
new Load.d824_826sb Bus1="824.2" Phases=1 Conn="wye" Model=5 kV=14.376 kW=20 kvar=10 VMinpu=0.85
new Load.d824_826rb Bus1="824.2" Phases=1 Conn="wye" Model=5 kV=14.376 kW=20 kvar=10 VMinpu=0.85
new Load.d824_828sc Bus1="824.3" Phases=1 Conn="wye" Model=1 kV=14.376 kW=2 kvar=1 VMinpu=0.85
new Load.d824_828rc Bus1="824.3" Phases=1 Conn="wye" Model=1 kV=14.376 kW=2 kvar=1 VMinpu=0.85
new Load.d828_830sa Bus1="824.1" Phases=1 Conn="wye" Model=1 kV=14.376 kW=3.5 kvar=1.5 VMinpu=0.85
new Load.d828_830ra Bus1="830.1" Phases=1 Conn="wye" Model=1 kV=14.376 kW=3.5 kvar=1.5 VMinpu=0.85
new Load.d854_856sb Bus1="830.2" Phases=1 Conn="wye" Model=1 kV=14.376 kW=2 kvar=1 VMinpu=0.85
new Load.d854_856rb Bus1="830.2" Phases=1 Conn="wye" Model=1 kV=14.376 kW=2 kvar=1 VMinpu=0.85
new Load.d832_858sa Bus1="852r.1" Phases=1 Conn="delta" Model=2 kV=24.9 kW=3.5 kvar=1.5 VMinpu=0.85
new Load.d832_858ra Bus1="852r.1" Phases=1 Conn="delta" Model=2 kV=24.9 kW=3.5 kvar=1.5 VMinpu=0.85
new Load.d832_858sb Bus1="852r.2" Phases=1 Conn="delta" Model=2 kV=24.9 kW=1 kvar=0.5 VMinpu=0.85
new Load.d832_858rb Bus1="852r.2" Phases=1 Conn="delta" Model=2 kV=24.9 kW=1 kvar=0.5 VMinpu=0.85
new Load.d832_858sc Bus1="852r.3" Phases=1 Conn="delta" Model=2 kV=24.9 kW=3 kvar=1.5 VMinpu=0.85
new Load.d832_858rc Bus1="852r.3" Phases=1 Conn="delta" Model=2 kV=24.9 kW=3 kvar=1.5 VMinpu=0.85
new Load.d858_864sb Bus1="852r.1" Phases=1 Conn="wye" Model=1 kV=14.376 kW=1 kvar=0.5 VMinpu=0.85
new Load.d858_864rb Bus1="852r.1" Phases=1 Conn="wye" Model=1 kV=14.376 kW=1 kvar=0.5 VMinpu=0.85
new Load.d858_834sa Bus1="852r.1.2" Phases=1 Conn="delta" Model=1 kV=24.9 kW=2 kvar=1 VMinpu=0.85
new Load.d858_834ra Bus1="852r.1.2" Phases=1 Conn="delta" Model=1 kV=24.9 kW=2 kvar=1 VMinpu=0.85
new Load.d858_834sb Bus1="852r.2.3" Phases=1 Conn="delta" Model=1 kV=24.9 kW=7.5 kvar=4 VMinpu=0.85
new Load.d858_834rb Bus1="852r.2.3" Phases=1 Conn="delta" Model=1 kV=24.9 kW=7.5 kvar=4 VMinpu=0.85
new Load.d858_834sc Bus1="852r.3.1" Phases=1 Conn="delta" Model=1 kV=24.9 kW=6.5 kvar=3.5 VMinpu=0.85
new Load.d858_834rc Bus1="852r.3.1" Phases=1 Conn="delta" Model=1 kV=24.9 kW=6.5 kvar=3.5 VMinpu=0.85
new Load.d834_860sa Bus1="852r.1.2" Phases=1 Conn="delta" Model=2 kV=24.9 kW=8 kvar=4 VMinpu=0.85
new Load.d834_860ra Bus1="852r.1.2" Phases=1 Conn="delta" Model=2 kV=24.9 kW=8 kvar=4 VMinpu=0.85
new Load.d834_860sb Bus1="852r.2.3" Phases=1 Conn="delta" Model=2 kV=24.9 kW=10 kvar=5 VMinpu=0.85
new Load.d834_860rb Bus1="852r.2.3" Phases=1 Conn="delta" Model=2 kV=24.9 kW=10 kvar=5 VMinpu=0.85
new Load.d834_860sc Bus1="852r.3.1" Phases=1 Conn="delta" Model=2 kV=24.9 kW=55 kvar=27.5 VMinpu=0.85
new Load.d834_860rc Bus1="852r.3.1" Phases=1 Conn="delta" Model=2 kV=24.9 kW=55 kvar=27.5 VMinpu=0.85
new Load.d860_836sa Bus1="852r.1.2" Phases=1 Conn="delta" Model=1 kV=24.9 kW=15 kvar=7.5 VMinpu=0.85
new Load.d860_836ra Bus1="852r.1.2" Phases=1 Conn="delta" Model=1 kV=24.9 kW=15 kvar=7.5 VMinpu=0.85
new Load.d860_836sb Bus1="852r.2.3" Phases=1 Conn="delta" Model=1 kV=24.9 kW=5 kvar=3 VMinpu=0.85
new Load.d860_836rb Bus1="852r.2.3" Phases=1 Conn="delta" Model=1 kV=24.9 kW=5 kvar=3 VMinpu=0.85
new Load.d860_836sc Bus1="852r.3.1" Phases=1 Conn="delta" Model=1 kV=24.9 kW=21 kvar=11 VMinpu=0.85
new Load.d860_836rc Bus1="852r.3.1" Phases=1 Conn="delta" Model=1 kV=24.9 kW=21 kvar=11 VMinpu=0.85
new Load.d836_840sa Bus1="852r.1.2" Phases=1 Conn="delta" Model=5 kV=24.9 kW=9 kvar=4.5 VMinpu=0.85
new Load.d836_840ra Bus1="852r.1.2" Phases=1 Conn="delta" Model=5 kV=24.9 kW=9 kvar=4.5 VMinpu=0.85
new Load.d836_840sb Bus1="852r.2.3" Phases=1 Conn="delta" Model=5 kV=24.9 kW=11 kvar=5.5 VMinpu=0.85
new Load.d836_840rb Bus1="852r.2.3" Phases=1 Conn="delta" Model=5 kV=24.9 kW=11 kvar=5.5 VMinpu=0.85
new Load.d862_838sb Bus1="852r.2" Phases=1 Conn="wye" Model=1 kV=14.376 kW=14 kvar=7 VMinpu=0.85
new Load.d862_838rb Bus1="852r.2" Phases=1 Conn="wye" Model=1 kV=14.376 kW=14 kvar=7 VMinpu=0.85
new Load.d842_844sa Bus1="852r.1" Phases=1 Conn="wye" Model=1 kV=14.376 kW=4.5 kvar=2.5 VMinpu=0.85
new Load.d842_844ra Bus1="852r.1" Phases=1 Conn="wye" Model=1 kV=14.376 kW=4.5 kvar=2.5 VMinpu=0.85
new Load.d844_846sb Bus1="852r.2" Phases=1 Conn="wye" Model=1 kV=14.376 kW=12.5 kvar=6 VMinpu=0.85
new Load.d844_846rb Bus1="852r.2" Phases=1 Conn="wye" Model=1 kV=14.376 kW=12.5 kvar=6 VMinpu=0.85
new Load.d844_846sc Bus1="852r.3" Phases=1 Conn="wye" Model=1 kV=14.376 kW=10 kvar=5.5 VMinpu=0.85
new Load.d844_846rc Bus1="852r.3" Phases=1 Conn="wye" Model=1 kV=14.376 kW=10 kvar=5.5 VMinpu=0.85
new Load.d846_848sb Bus1="852r.2" Phases=1 Conn="wye" Model=1 kV=14.376 kW=11.5 kvar=5.5 VMinpu=0.85
new Load.d846_848rb Bus1="852r.2" Phases=1 Conn="wye" Model=1 kV=14.376 kW=11.5 kvar=5.5 VMinpu=0.85
